10
C
Cu 0 0 0
S   0.06615607   0.19523800  -2.25396274    2.26336973  
S  -1.10539783  -1.86263333   1.12967107    2.44283933  
S   2.26942814   0.10549166   1.19422424    2.56663284  
Cu  -2.37227115   0.10864018   1.08663598    2.61156100  
S  -1.12332498   2.01221130   1.25877633    2.62590388  
Cu   1.31062610  -2.01535983   1.08663598    2.63821791  
Cu   1.09287251   2.01693464   1.40132979    2.68814450  
Cu   1.37725103  -1.68471483  -1.97154498    2.93633684  
Cu  -2.21602582   0.24719666  -2.01189037    3.00326148  
