413 
C 
  O       -0.000000     0.000000     0.000000    0   8  0.000
 Cu       -1.328319    -1.337500     0.069079    1  29  1.886
 Cu        1.346681     1.337500     0.069079    1  29  1.899
 La        1.163737    -1.374415    -1.307449    2  57  2.225
 La       -1.145375     1.300585     1.445607    2  57  2.257
 La       -1.511263     1.374415    -1.307449    2  57  2.425
  O       -1.087182    -1.147040     1.883472    3   8  2.459
 La        1.529625    -1.300585     1.445607    2  57  2.474
  O        1.105544     1.527960    -1.745314    3   8  2.570
  O        2.675000     0.000000     0.000000    3   8  2.675
  O       -2.675000     0.000000     0.000000    3   8  2.675
  O        0.018362     2.675000     0.138158    3   8  2.679
  O        0.018362    -2.675000     0.138158    3   8  2.679
  O        1.587818     1.147040     1.883472    3   8  2.717
  O       -1.569456    -1.527960    -1.745314    3   8  2.801
  O        0.929225    -1.147040    -3.071990    3   8  3.408
  O       -0.910863     1.527960     3.210148    3   8  3.670
  O       -1.745775     1.147040    -3.071990    3   8  3.715
  O       -2.656638     2.675000     0.138158    3   8  3.773
  O       -2.656638    -2.675000     0.138158    3   8  3.773
  O        2.693362     2.675000     0.138158    3   8  3.799
  O        2.693362    -2.675000     0.138158    3   8  3.799
 La        0.871032     1.300585    -3.509855    2  57  3.843
  O        1.764137    -1.527960     3.210148    3   8  3.969
 La       -0.852670    -1.374415     3.648013    2  57  3.990
 La       -1.803968    -1.300585    -3.509855    2  57  4.155
 Cu       -4.003319     1.337500     0.069079    1  29  4.221
 Cu       -1.328319     4.012500     0.069079    1  29  4.227
 Cu        1.346681    -4.012500     0.069079    1  29  4.233
 Cu        4.021681    -1.337500     0.069079    1  29  4.239
 La        3.838737     1.374415    -1.307449    2  57  4.282
 La       -3.820375    -1.300585     1.445607    2  57  4.287
 La        1.822330     1.374415     3.648013    2  57  4.303
 La        1.163737     3.975585    -1.307449    2  57  4.344
  O        1.105544    -3.822040    -1.745314    3   8  4.345
  O       -3.762182     1.147040     1.883472    3   8  4.361
  O        3.780544    -1.527960    -1.745314    3   8  4.435
 La       -1.511263    -3.975585    -1.307449    2  57  4.450
 La       -1.145375    -4.049415     1.445607    2  57  4.450
  O       -1.569456     3.822040    -1.745314    3   8  4.485
 La        1.529625     4.049415     1.445607    2  57  4.564
 La       -4.186263    -1.374415    -1.307449    2  57  4.596
 La        4.204625     1.300585     1.445607    2  57  4.633
  O       -1.087182     4.202960     1.883472    3   8  4.732
  O        4.262818    -1.147040     1.883472    3   8  4.799
  O       -4.244456     1.527960    -1.745314    3   8  4.837
  O        1.587818    -4.202960     1.883472    3   8  4.872
  O        3.604225     1.147040    -3.071990    3   8  4.873
  O        0.658593     0.000000     4.955462    3   8  4.999
  O       -0.658593     0.000000    -4.955462    3   8  4.999
  O       -3.585863    -1.527960     3.210148    3   8  5.050
  O       -0.910863    -3.822040     3.210148    3   8  5.074
 Cu        0.688088    -1.337500    -4.886383    1  29  5.113
 La        3.546032    -1.300585    -3.509855    2  57  5.156
 Cu       -0.669726     1.337500     5.024541    1  29  5.242
 La       -3.527670     1.374415     3.648013    2  57  5.258
  O        0.929225     4.202960    -3.071990    3   8  5.288
  O        1.764137     3.822040     3.210148    3   8  5.294
  O        5.350000     0.000000     0.000000    3   8  5.350
  O       -5.350000     0.000000     0.000000    3   8  5.350
  O        0.000000     5.350000     0.000000    3   8  5.350
  O        0.000000    -5.350000     0.000000    3   8  5.350
  O       -2.016407     0.000000     4.955462    3   8  5.350
  O        2.016407     0.000000    -4.955462    3   8  5.350
 La        0.871032    -4.049415    -3.509855    2  57  5.429
 Cu       -1.986912     1.337500    -4.886383    1  29  5.442
 La       -0.852670     3.975585     3.648013    2  57  5.463
  O       -1.745775    -4.202960    -3.071990    3   8  5.491
  O       -4.420775    -1.147040    -3.071990    3   8  5.504
  O       -0.640231     2.675000    -4.817304    3   8  5.547
  O       -0.640231    -2.675000    -4.817304    3   8  5.547
 Cu        2.005274    -1.337500     5.024541    1  29  5.573
  O        3.780544     3.822040    -1.745314    3   8  5.652
 La       -1.803968     4.049415    -3.509855    2  57  5.654
 Cu       -4.003319    -4.012500     0.069079    1  29  5.668
 La        3.838737    -3.975585    -1.307449    2  57  5.679
 Cu        4.021681     4.012500     0.069079    1  29  5.681
  O        4.439137     1.527960     3.210148    3   8  5.687
 La        1.822330    -3.975585     3.648013    2  57  5.695
 La       -3.820375     4.049415     1.445607    2  57  5.752
  O        0.676955     2.675000     5.093620    3   8  5.793
  O        0.676955    -2.675000     5.093620    3   8  5.793
 La       -4.478968     1.300585    -3.509855    2  57  5.837
  O        2.034769     2.675000    -4.817304    3   8  5.874
  O        2.034769    -2.675000    -4.817304    3   8  5.874
 La       -4.186263     3.975585    -1.307449    2  57  5.919
  O       -3.762182    -4.202960     1.883472    3   8  5.947
 La        4.497330    -1.374415     3.648013    2  57  5.952
  O       -5.331638     2.675000     0.138158    3   8  5.967
  O       -5.331638    -2.675000     0.138158    3   8  5.967
  O        3.333593     0.000000     4.955462    3   8  5.972
  O       -3.333593     0.000000    -4.955462    3   8  5.972
  O       -4.244456    -3.822040    -1.745314    3   8  5.972
  O        2.675000     5.350000     0.000000    3   8  5.981
  O        2.675000    -5.350000     0.000000    3   8  5.981
  O       -2.675000     5.350000     0.000000    3   8  5.981
  O       -2.675000    -5.350000     0.000000    3   8  5.981
  O        5.368362     2.675000     0.138158    3   8  6.000
  O        5.368362    -2.675000     0.138158    3   8  6.000
 La        4.204625    -4.049415     1.445607    2  57  6.014
 Cu        3.363088     1.337500    -4.886383    1  29  6.081
  O       -1.998045     2.675000     5.093620    3   8  6.090
  O       -1.998045    -2.675000     5.093620    3   8  6.090
  O       -3.585863     3.822040     3.210148    3   8  6.146
 Cu       -3.344726    -1.337500     5.024541    1  29  6.182
  O        4.262818     4.202960     1.883472    3   8  6.276
  O        3.604225    -4.202960    -3.071990    3   8  6.332
 Cu        0.688088     4.012500    -4.886383    1  29  6.360
 La        3.546032     4.049415    -3.509855    2  57  6.426
  O       -3.315231     2.675000    -4.817304    3   8  6.431
  O       -3.315231    -2.675000    -4.817304    3   8  6.431
 La        0.505144     1.374415    -6.262911    2  57  6.432
 La       -3.527670    -3.975585     3.648013    2  57  6.447
 Cu       -0.669726    -4.012500     5.024541    1  29  6.465
 La       -0.486782    -1.300585     6.401069    2  57  6.550
 Cu       -1.986912    -4.012500    -4.886383    1  29  6.628
  O        3.351955     2.675000     5.093620    3   8  6.659
  O        3.351955    -2.675000     5.093620    3   8  6.659
  O        4.439137    -3.822040     3.210148    3   8  6.680
 Cu        2.005274     4.012500     5.024541    1  29  6.736
 La       -2.169856    -1.374415    -6.262911    2  57  6.769
 La       -6.495375     1.300585     1.445607    2  57  6.780
 La        6.513737    -1.374415    -1.307449    2  57  6.784
  O       -6.437182    -1.147040     1.883472    3   8  6.804
 Cu       -6.678319    -1.337500     0.069079    1  29  6.811
 Cu       -1.328319    -6.687500     0.069079    1  29  6.818
 Cu        1.346681     6.687500     0.069079    1  29  6.822
  O        4.691407     0.000000    -4.955462    3   8  6.824
  O       -4.691407     0.000000     4.955462    3   8  6.824
 Cu        6.696681     1.337500     0.069079    1  29  6.829
  O       -4.420775     4.202960    -3.071990    3   8  6.830
  O       -1.087182    -6.497040     1.883472    3   8  6.851
  O        6.455544     1.527960    -1.745314    3   8  6.860
 Cu       -4.661912    -1.337500    -4.886383    1  29  6.885
  O        0.446951    -1.527960    -6.700776    3   8  6.887
 La        2.188218     1.300585     6.401069    2  57  6.889
 La       -1.145375     6.650585     1.445607    2  57  6.902
  O       -0.428589     1.147040     6.838934    3   8  6.948
  O        1.587818     6.497040     1.883472    3   8  6.948
 La        1.163737    -6.724415    -1.307449    2  57  6.948
 La        1.529625    -6.650585     1.445607    2  57  6.976
 La       -4.478968    -4.049415    -3.509855    2  57  6.984
 Cu        4.680274     1.337500     5.024541    1  29  6.996
 La       -1.511263     6.724415    -1.307449    2  57  7.015
 La        4.497330     3.975585     3.648013    2  57  7.024
  O        6.279225    -1.147040    -3.071990    3   8  7.084
 La       -6.861263     1.374415    -1.307449    2  57  7.119
 La        6.879625    -1.300585     1.445607    2  57  7.149
 La        3.180144    -1.374415    -6.262911    2  57  7.157
 Cu        3.363088    -4.012500    -4.886383    1  29  7.162
  O        1.105544     6.877960    -1.745314    3   8  7.182
  O       -6.260863     1.527960     3.210148    3   8  7.200
  O       -2.228049     1.527960    -6.700776    3   8  7.225
  O        0.929225    -6.497040    -3.071990    3   8  7.247
 Cu       -3.344726     4.012500     5.024541    1  29  7.248
  O        4.709769     2.675000    -4.817304    3   8  7.249
  O        4.709769    -2.675000    -4.817304    3   8  7.249
 La       -3.161782     1.300585     6.401069    2  57  7.257
 La        6.221032     1.300585    -3.509855    2  57  7.260
  O       -1.569456    -6.877960    -1.745314    3   8  7.267
  O        6.937818     1.147040     1.883472    3   8  7.280
  O        2.246411    -1.147040     6.838934    3   8  7.289
  O       -6.919456    -1.527960    -1.745314    3   8  7.298
  O        0.658593     5.350000     4.955462    3   8  7.322
  O        0.658593    -5.350000     4.955462    3   8  7.322
  O       -0.658593    -5.350000    -4.955462    3   8  7.322
  O       -0.658593     5.350000    -4.955462    3   8  7.322
 La       -6.202670    -1.374415     3.648013    2  57  7.326
  O       -1.745775     6.497040    -3.071990    3   8  7.396
  O       -4.673045     2.675000     5.093620    3   8  7.412
  O       -4.673045    -2.675000     5.093620    3   8  7.412
 La        0.505144    -3.975585    -6.262911    2  57  7.435
  O        3.121951     1.527960    -6.700776    3   8  7.549
  O        5.350000     5.350000     0.000000    3   8  7.566
  O        5.350000    -5.350000     0.000000    3   8  7.566
  O       -5.350000     5.350000     0.000000    3   8  7.566
  O       -5.350000    -5.350000     0.000000    3   8  7.566
  O       -2.016407     5.350000     4.955462    3   8  7.566
  O       -2.016407    -5.350000     4.955462    3   8  7.566
  O        2.016407     5.350000    -4.955462    3   8  7.566
  O        2.016407    -5.350000    -4.955462    3   8  7.566
 La        0.871032     6.650585    -3.509855    2  57  7.570
 La       -0.486782     4.049415     6.401069    2  57  7.590
  O       -3.103589    -1.147040     6.838934    3   8  7.597
  O       -0.910863     6.877960     3.210148    3   8  7.645
 La       -0.852670    -6.724415     3.648013    2  57  7.698
  O        6.455544    -3.822040    -1.745314    3   8  7.702
  O        0.446951     3.822040    -6.700776    3   8  7.727
 La       -2.169856     3.975585    -6.262911    2  57  7.729
 La       -1.803968    -6.650585    -3.509855    2  57  7.733
  O       -3.762182     6.497040     1.883472    3   8  7.740
 La        6.513737     3.975585    -1.307449    2  57  7.742
  O       -6.008593     0.000000    -4.955462    3   8  7.788
  O        6.008593     0.000000     4.955462    3   8  7.788
 La       -6.495375    -4.049415     1.445607    2  57  7.790
 Cu       -6.678319     4.012500     0.069079    1  29  7.791
  O        1.764137    -6.877960     3.210148    3   8  7.793
 Cu       -4.003319     6.687500     0.069079    1  29  7.794
 Cu        4.021681    -6.687500     0.069079    1  29  7.804
 La       -3.820375    -6.650585     1.445607    2  57  7.805
 Cu        6.696681    -4.012500     0.069079    1  29  7.807
  O       -7.095775     1.147040    -3.071990    3   8  7.817
 La        3.838737     6.724415    -1.307449    2  57  7.853
 Cu       -4.661912     4.012500    -4.886383    1  29  7.856
 La        1.822330     6.724415     3.648013    2  57  7.864
 Cu        6.038088    -1.337500    -4.886383    1  29  7.882
 La        2.188218    -4.049415     6.401069    2  57  7.884
  O       -6.437182     4.202960     1.883472    3   8  7.915
  O        7.114137    -1.527960     3.210148    3   8  7.953
 Cu        4.680274    -4.012500     5.024541    1  29  7.953
 Cu       -6.019726     1.337500     5.024541    1  29  7.954
  O        4.262818    -6.497040     1.883472    3   8  7.996
 La        4.204625     6.650585     1.445607    2  57  8.000
  O       -6.260863    -3.822040     3.210148    3   8  8.007
  O        3.333593     5.350000     4.955462    3   8  8.018
  O        3.333593    -5.350000     4.955462    3   8  8.018
  O       -3.333593    -5.350000    -4.955462    3   8  8.018
  O       -3.333593     5.350000    -4.955462    3   8  8.018
  O        8.025000     0.000000     0.000000    3   8  8.025
  O       -8.025000     0.000000     0.000000    3   8  8.025
  O        0.018362     8.025000     0.138158    3   8  8.026
  O        0.018362    -8.025000     0.138158    3   8  8.026
 La       -4.186263    -6.724415    -1.307449    2  57  8.028
  O       -2.228049    -3.822040    -6.700776    3   8  8.029
 La       -4.844856     1.374415    -6.262911    2  57  8.037
 La       -6.861263    -3.975585    -1.307449    2  57  8.037
  O       -0.428589    -4.202960     6.838934    3   8  8.039
  O        3.604225     6.497040    -3.071990    3   8  8.040
  O        3.780544    -6.877960    -1.745314    3   8  8.040
 La        3.180144     3.975585    -6.262911    2  57  8.071
 La       -7.153968    -1.300585    -3.509855    2  57  8.074
  O       -6.919456     3.822040    -1.745314    3   8  8.095
 La        6.879625     4.049415     1.445607    2  57  8.113
  O        0.270632     1.147040    -8.027452    3   8  8.114
  O       -5.990231     2.675000    -4.817304    3   8  8.139
  O       -5.990231    -2.675000    -4.817304    3   8  8.139
 La        4.863218    -1.300585     6.401069    2  57  8.143
  O        6.279225     4.202960    -3.071990    3   8  8.157
 La        7.172330     1.374415     3.648013    2  57  8.163
 La       -3.161782    -4.049415     6.401069    2  57  8.208
 La        6.221032    -4.049415    -3.509855    2  57  8.211
 La       -6.202670     3.975585     3.648013    2  57  8.221
  O       -4.244456     6.877960    -1.745314    3   8  8.268
 Cu        0.688088    -6.687500    -4.886383    1  29  8.311
  O       -0.252270    -1.527960     8.165610    3   8  8.311
 La        3.546032    -6.650585    -3.509855    2  57  8.314
  O        3.121951    -3.822040    -6.700776    3   8  8.322
  O        6.937818    -4.202960     1.883472    3   8  8.327
  O        6.026955     2.675000     5.093620    3   8  8.332
  O        6.026955    -2.675000     5.093620    3   8  8.332
  O        2.246411     4.202960     6.838934    3   8  8.336
 Cu       -0.669726     6.687500     5.024541    1  29  8.391
  O       -3.585863    -6.877960     3.210148    3   8  8.395
 La       -3.527670     6.724415     3.648013    2  57  8.424
  O       -4.420775    -6.497040    -3.071990    3   8  8.438
  O       -4.903049    -1.527960    -6.700776    3   8  8.442
  O       -8.006638     2.675000     0.138158    3   8  8.443
  O       -8.006638    -2.675000     0.138158    3   8  8.443
  O       -2.656638     8.025000     0.138158    3   8  8.454
  O       -2.656638    -8.025000     0.138158    3   8  8.454
  O       -2.404368    -1.147040    -8.027452    3   8  8.458
  O        2.693362     8.025000     0.138158    3   8  8.466
  O        2.693362    -8.025000     0.138158    3   8  8.466
  O        8.043362     2.675000     0.138158    3   8  8.478
  O        8.043362    -2.675000     0.138158    3   8  8.478
  O        4.921411     1.147040     6.838934    3   8  8.503
 Cu       -1.986912     6.687500    -4.886383    1  29  8.517
 La        0.212439    -1.300585    -8.465317    2  57  8.567
 Cu        2.005274    -6.687500     5.024541    1  29  8.602
  O       -3.103589     4.202960     6.838934    3   8  8.606
  O        2.945632    -1.147040    -8.027452    3   8  8.627
  O        2.422730     1.527960     8.165610    3   8  8.653
  O        4.691407     5.350000    -4.955462    3   8  8.671
  O        4.691407    -5.350000    -4.955462    3   8  8.671
  O       -4.691407    -5.350000     4.955462    3   8  8.671
  O       -4.691407     5.350000     4.955462    3   8  8.671
 La        5.855144     1.374415    -6.262911    2  57  8.683
  O        7.114137     3.822040     3.210148    3   8  8.690
 La       -0.194077     1.374415     8.603475    2  57  8.715
 Cu        6.038088     4.012500    -4.886383    1  29  8.743
 La       -4.478968     6.650585    -3.509855    2  57  8.753
 La       -5.836782    -1.300585     6.401069    2  57  8.760
  O        4.439137     6.877960     3.210148    3   8  8.793
  O       -7.095775    -4.202960    -3.071990    3   8  8.801
  O       -2.927270     1.527960     8.165610    3   8  8.808
 Cu       -6.019726    -4.012500     5.024541    1  29  8.808
 La       -4.844856    -3.975585    -6.262911    2  57  8.860
 La        4.497330    -6.724415     3.648013    2  57  8.874
  O       -7.366407     0.000000     4.955462    3   8  8.878
  O        7.366407     0.000000    -4.955462    3   8  8.878
 La       -2.462561     1.300585    -8.465317    2  57  8.912
 Cu       -7.336912     1.337500    -4.886383    1  29  8.916
 La       -7.153968     4.049415    -3.509855    2  57  8.938
 Cu        3.363088     6.687500    -4.886383    1  29  8.939
 La        7.172330    -3.975585     3.648013    2  57  8.975
  O        5.796951    -1.527960    -6.700776    3   8  8.991
 La        4.863218     4.049415     6.401069    2  57  9.001
 Cu        7.355274    -1.337500     5.024541    1  29  9.007
 Cu       -3.344726    -6.687500     5.024541    1  29  9.009
  O       -0.252270     3.822040     8.165610    3   8  9.019
  O       -5.778589     1.147040     6.838934    3   8  9.027
 La        2.887439     1.300585    -8.465317    2  57  9.038
 La        2.480923    -1.374415     8.603475    2  57  9.059
  O        0.270632    -4.202960    -8.027452    3   8  9.065
  O       -4.903049     3.822040    -6.700776    3   8  9.140
 La       -2.869077    -1.374415     8.603475    2  57  9.173
 La        0.505144     6.724415    -6.262911    2  57  9.203
  O        7.384769     2.675000    -4.817304    3   8  9.214
  O        7.384769    -2.675000    -4.817304    3   8  9.214
 La       -0.486782    -6.650585     6.401069    2  57  9.243
  O       -7.348045     2.675000     5.093620    3   8  9.332
  O       -7.348045    -2.675000     5.093620    3   8  9.332
  O        2.422730    -3.822040     8.165610    3   8  9.336
  O       -6.437182    -6.497040     1.883472    3   8  9.338
 La       -9.170375    -1.300585     1.445607    2  57  9.374
  O       -2.404368     4.202960    -8.027452    3   8  9.375
  O       -9.112182     1.147040     1.883472    3   8  9.375
  O       -0.640231     8.025000    -4.817304    3   8  9.382
  O       -0.640231    -8.025000    -4.817304    3   8  9.382
 La        9.188737     1.374415    -1.307449    2  57  9.383
 La        0.212439     4.049415    -8.465317    2  57  9.386
  O        1.105544    -9.172040    -1.745314    3   8  9.402
 La       -6.495375     6.650585     1.445607    2  57  9.408
  O        4.921411    -4.202960     6.838934    3   8  9.416
  O        9.130544    -1.527960    -1.745314    3   8  9.421
 La       -2.169856    -6.724415    -6.262911    2  57  9.442
  O       -0.428589     6.497040     6.838934    3   8  9.443
 Cu       -9.353319     1.337500     0.069079    1  29  9.449
  O       -6.008593     5.350000    -4.955462    3   8  9.449
  O       -6.008593    -5.350000    -4.955462    3   8  9.449
  O        6.008593     5.350000     4.955462    3   8  9.449
  O        6.008593    -5.350000     4.955462    3   8  9.449
 La        5.855144    -3.975585    -6.262911    2  57  9.451
 Cu       -6.678319    -6.687500     0.069079    1  29  9.451
 La        6.513737    -6.724415    -1.307449    2  57  9.453
 Cu       -1.328319     9.362500     0.069079    1  29  9.457
 Cu        1.346681    -9.362500     0.069079    1  29  9.459
 Cu        6.696681     6.687500     0.069079    1  29  9.464
 Cu        9.371681    -1.337500     0.069079    1  29  9.467
  O       -1.569456     9.172040    -1.745314    3   8  9.468
  O       -2.927270    -3.822040     8.165610    3   8  9.479
 La       -0.194077    -3.975585     8.603475    2  57  9.480
 La        2.188218     6.650585     6.401069    2  57  9.486
 La        1.163737     9.325585    -1.307449    2  57  9.488
 Cu       -4.661912    -6.687500    -4.886383    1  29  9.504
  O        2.945632     4.202960    -8.027452    3   8  9.528
  O        0.676955     8.025000     5.093620    3   8  9.529
  O        0.676955    -8.025000     5.093620    3   8  9.529
  O        8.954225     1.147040    -3.071990    3   8  9.536
 La       -1.511263    -9.325585    -1.307449    2  57  9.537
  O        6.279225    -6.497040    -3.071990    3   8  9.543
 La       -5.836782     4.049415     6.401069    2  57  9.562
  O       -5.079368     1.147040    -8.027452    3   8  9.568
  O        2.034769     8.025000    -4.817304    3   8  9.578
  O        2.034769    -8.025000    -4.817304    3   8  9.578
 La       -1.145375    -9.399415     1.445607    2  57  9.579
 Cu        4.680274     6.687500     5.024541    1  29  9.585
  O        6.455544     6.877960    -1.745314    3   8  9.593
  O        0.446951    -6.877960    -6.700776    3   8  9.613
  O       -8.935863    -1.527960     3.210148    3   8  9.617
 La        1.529625     9.399415     1.445607    2  57  9.632
  O       -5.331638     8.025000     0.138158    3   8  9.636
  O       -5.331638    -8.025000     0.138158    3   8  9.636
  O        8.025000     5.350000     0.000000    3   8  9.645
  O       -8.025000     5.350000     0.000000    3   8  9.645
  O        8.025000    -5.350000     0.000000    3   8  9.645
  O       -8.025000    -5.350000     0.000000    3   8  9.645
  O        5.796951     3.822040    -6.700776    3   8  9.650
 La        8.896032    -1.300585    -3.509855    2  57  9.651
  O        5.368362     8.025000     0.138158    3   8  9.656
  O        5.368362    -8.025000     0.138158    3   8  9.656
 La        6.879625    -6.650585     1.445607    2  57  9.677
 Cu       -7.336912    -4.012500    -4.886383    1  29  9.685
  O        6.937818     6.497040     1.883472    3   8  9.690
 La       -6.861263     6.724415    -1.307449    2  57  9.696
 La       -8.877670     1.374415     3.648013    2  57  9.696
  O        2.246411    -6.497040     6.838934    3   8  9.697
 La       -2.462561    -4.049415    -8.465317    2  57  9.702
  O       -1.998045     8.025000     5.093620    3   8  9.713
  O       -1.998045    -8.025000     5.093620    3   8  9.713
 La       -9.536263    -1.374415    -1.307449    2  57  9.723
 La        3.180144    -6.724415    -6.262911    2  57  9.724
  O        5.097730    -1.527960     8.165610    3   8  9.747
 La        9.554625     1.300585     1.445607    2  57  9.750
 La       -3.161782     6.650585     6.401069    2  57  9.757
 La        6.221032     6.650585    -3.509855    2  57  9.760
  O       -0.910863    -9.172040     3.210148    3   8  9.760
 Cu        7.355274     4.012500     5.024541    1  29  9.770
 La        2.480923     3.975585     8.603475    2  57  9.797
  O       -1.087182     9.552960     1.883472    3   8  9.797
 La        2.887439    -4.049415    -8.465317    2  57  9.818
  O       -6.260863     6.877960     3.210148    3   8  9.839
 La       -6.202670    -6.724415     3.648013    2  57  9.849
  O       -2.228049     6.877960    -6.700776    3   8  9.858
  O        9.612818    -1.147040     1.883472    3   8  9.863
  O        1.587818    -9.552960     1.883472    3   8  9.865
  O        5.620632     1.147040    -8.027452    3   8  9.866
  O       -9.594456     1.527960    -1.745314    3   8  9.871
  O        1.764137     9.172040     3.210148    3   8  9.876
 La       -7.519856    -1.374415    -6.262911    2  57  9.882
  O       -5.778589    -4.202960     6.838934    3   8  9.891
 La       -2.869077     3.975585     8.603475    2  57  9.902
  O       -6.919456    -6.877960    -1.745314    3   8  9.911
  O       -3.315231     8.025000    -4.817304    3   8  9.930
  O       -3.315231    -8.025000    -4.817304    3   8  9.930
  O       -3.103589    -6.497040     6.838934    3   8  9.930
 Cu        0.029495     1.337500    -9.841845    1  29  9.932
 La        7.538218     1.300585     6.401069    2  57  9.974
 La       -5.137561    -1.300585    -8.465317    2  57  9.987
  O        8.683593     0.000000     4.955462    3   8  9.998
  O       -8.683593     0.000000    -4.955462    3   8  9.998
  O       -1.317186     0.000000    -9.910924    3   8  9.998
  O        1.317186     0.000000     9.910924    3   8  9.998
