205
C
F 0 0 0
Nb  -1.58733190  -0.44921590  -0.67766428    1.78343667  
F  -2.28349672  -1.02720510   0.85305975    2.64522561  
F  -2.28349672   1.18575188  -0.61388412    2.64522561  
F  -0.79394139   0.01596368  -2.53526167    2.65671781  
F  -0.79394139  -2.34131658  -0.97264756    2.65671781  
F   2.14702230  -1.04112391  -1.57058664    2.85663896  
F   2.83650328  -1.02720510   0.85305975    3.13506173  
F   2.83650328   1.18575188  -0.61388412    3.13506173  
F  -1.03375895   1.63831681   2.47148151    3.14021661  
F   0.26424942  -2.42633190   2.03299285    3.17647197  
F   0.26424942   2.81741398  -1.44302630    3.17647197  
F   1.24973778   0.45256493   3.08536562    3.35948516  
F   1.24973778   2.66552191   1.61842176    3.35948516  
F  -2.97297770  -1.04112391  -1.57058664    3.51984059  
Nb   3.53266810  -0.44921590  -0.67766428    3.62501968  
F   1.41992023   0.96043735  -3.35643134    3.76885190  
F   1.41992023  -3.46547661  -0.42254361    3.76885191  
Nb   0.55357295   2.08753272   3.14914579    3.81855405  
F  -1.29800836  -1.17909717   3.91450781    4.28934345  
F  -1.29800836   4.06464872   0.43848865    4.28934345  
Nb  -0.00565536   0.59412689  -4.35299646    4.39335828  
Nb  -0.00565536  -4.24070303  -1.14804302    4.39335828  
Nb  -0.51687947  -2.77689669   3.61952453    4.59121742  
Nb  -0.51687947   4.41521350  -1.14804302    4.59121742  
F  -0.78678425   2.19192641  -4.05801318    4.67878637  
F  -0.78678425  -4.59126781   0.43848865    4.67878637  
F   0.78263066  -1.30525956  -4.52839192    4.77729491  
F   0.78263066  -3.66253982  -2.96577781    4.77729491  
F  -3.87026222   0.45256493   3.08536562    4.97023397  
F  -3.87026222   2.66552191   1.61842176    4.97023397  
F  -1.94245507  -3.55212311   2.89402512    4.97655419  
F  -1.94245507   4.04890304  -2.14460815    4.97655419  
F   4.32605861   0.01596368  -2.53526167    5.01423869  
F   4.32605861  -2.34131658  -0.97264756    5.01423869  
F   4.08624105   1.63831681   2.47148151    5.04872942  
F  -3.70007977   0.96043735  -3.35643134    5.08710738  
F  -3.70007977  -3.46547661  -0.42254361    5.08710739  
F   5.12000000   0.00000000   0.00000000    5.12000000  
F  -5.12000000   0.00000000   0.00000000    5.12000000  
F  -2.15833303  -2.60545222  -3.93045285    5.18606232  
F   1.93921875   2.67944073   4.04206814    5.22286194  
F  -0.23981756   1.62235313   5.00674318    5.26849309  
F  -0.23981756   3.97963339   3.44412907    5.26849309  
F  -1.43123096  -0.18109953  -5.07849587    5.27942605  
F  -1.43123096  -4.60701349  -2.14460815    5.27942605  
F   0.90869612  -2.41058623   4.61608965    5.28629722  
F   0.90869612   5.19043992  -0.42254361    5.28629722  
F   2.96166697  -2.60545222  -3.93045285    5.56851077  
F   3.17754493  -3.55212311   2.89402512    5.57581848  
F   3.17754493   4.04890304  -2.14460815    5.57581848  
F   3.82199164  -1.17909717   3.91450781    5.59654014  
F   3.82199164   4.06464872   0.43848865    5.59654014  
F  -4.85575058  -2.42633190   2.03299285    5.79641788  
F  -4.85575058   2.81741398  -1.44302630    5.79641788  
F  -3.18078125   2.67944073   4.04206814    5.79957643  
F   0.27140655  -4.67628314   3.44412907    5.81406145  
F   0.27140655   4.99337671  -2.96577781    5.81406145  
Nb  -4.56642705   2.08753272   3.14914579    5.92681770  
Nb   1.57602117  -3.19736023  -4.82337520    5.99765817  
F   0.77547353   0.94469168  -5.93952814    6.06397527  
F   0.77547353  -5.83850255  -1.44302630    6.06397527  
F   5.38424942  -2.42633190   2.03299285    6.24582166  
F   5.38424942   2.81741398  -1.44302630    6.24582166  
F   3.68876904  -0.18109953  -5.07849587    6.27940558  
F   3.68876904  -4.60701349  -2.14460815    6.27940558  
F   4.33321575   2.19192641  -4.05801318    6.32840984  
F   4.33321575  -4.59126781   0.43848865    6.32840984  
F  -2.45367918   0.67787946   5.82791284    6.35960928  
F  -2.45367918   5.10379342   2.89402512    6.35960928  
F  -4.33736934  -1.30525956  -4.52839192    6.40490505  
F  -4.33736934  -3.66253982  -2.96577781    6.40490505  
F  -5.91394139   0.01596368  -2.53526167    6.43447817  
F  -5.91394139  -2.34131658  -0.97264756    6.43447818  
F   2.66632082   0.67787946   5.82791284    6.44463773  
F   2.66632082   5.10379342   2.89402512    6.44463773  
F   1.76096189   3.82358851  -4.88715537    6.45020181  
F   1.76096189  -5.99039462   1.61842176    6.45020182  
Nb   4.60312053  -2.77689669   3.61952453    6.48080486  
Nb   4.60312053   4.41521350  -1.14804302    6.48080486  
F  -1.30516550  -3.35505990   5.43725932    6.52101777  
F  -1.30516550   6.31459995  -0.97264756    6.52101777  
F  -0.24697469  -0.55360960   6.52949469    6.55757432  
F  -0.24697469   6.22958463   2.03299285    6.55757433  
F  -0.01131073  -3.64657614  -5.50103948    6.59993037  
F  -4.21130388  -2.41058623   4.61608965    6.69733455  
F  -4.21130388   5.19043992  -0.42254361    6.69733455  
Nb   5.11434464   0.59412689  -4.35299646    6.74226119  
Nb   5.11434464  -4.24070303  -1.14804302    6.74226120  
Nb  -5.12565536   0.59412689  -4.35299646    6.75084497  
Nb  -5.12565536  -4.24070303  -1.14804302    6.75084498  
Nb  -6.70733190  -0.44921590  -0.67766428    6.75642842  
Nb  -3.54397883  -3.19736023  -4.82337520    6.78585637  
Nb   5.67357295   2.08753272   3.14914579    6.81647578  
F  -6.15375895   1.63831681   2.47148151    6.83088955  
Nb  -1.02810358   1.04418992   6.82447797    6.98003074  
Nb  -1.02810358   5.87901984   3.61952453    6.98003074  
F  -3.35903811   3.82358851  -4.88715537    7.05600834  
F  -3.35903811  -5.99039462   1.61842176    7.05600834  
F   6.36973778   0.45256493   3.08536562    7.09209809  
F   6.36973778   2.66552191   1.61842176    7.09209809  
F   4.88018244   1.62235313   5.00674318    7.17744297  
F   4.88018244   3.97963339   3.44412907    7.17744298  
F   2.27218600  -2.61937104  -6.35409923    7.23868157  
F   2.27218600  -4.83232802  -4.88715537    7.23868157  
Nb  -5.63687947  -2.77689669   3.61952453    7.25165659  
Nb  -5.63687947   4.41521350  -1.14804302    7.25165659  
Nb   1.06479706   5.45855630  -4.82337520    7.36169667  
Nb   1.06479706  -6.56838381   3.14914579    7.36169668  
F   6.53992023   0.96043735  -3.35643134    7.41340865  
F   6.53992023  -3.46547661  -0.42254361    7.41340865  
F  -4.34452647   0.94469168  -5.93952814    7.41925516  
F  -4.34452647  -5.83850255  -1.44302630    7.41925516  
F  -2.84781400  -2.61937104  -6.35409923    7.43947083  
F  -2.84781400  -4.83232802  -4.88715537    7.43947083  
F   3.81483450  -3.35505990   5.43725932    7.44131561  
F   3.81483450   6.31459995  -0.97264756    7.44131561  
F  -0.52253484   5.00934039  -5.50103948    7.45841600  
F  -0.52253484  -7.01759972   2.47148151    7.45841600  
F  -5.90678425   2.19192641  -4.05801318    7.49413855  
F  -5.90678425  -4.59126781   0.43848865    7.49413855  
F   7.26702230  -1.04112391  -1.57058664    7.50734936  
F  -5.35981756   1.62235313   5.00674318    7.51180080  
F  -5.35981756   3.97963339   3.44412907    7.51180080  
F  -7.40349672  -1.02720510   0.85305975    7.52293992  
F  -7.40349672   1.18575188  -0.61388412    7.52293992  
F   5.90263066  -1.30525956  -4.52839192    7.55321684  
F   5.90263066  -3.66253982  -2.96577781    7.55321684  
F  -4.84859345  -4.67628314   3.44412907    7.56561349  
F  -4.84859345   4.99337671  -2.96577781    7.56561349  
F  -6.41800836  -1.17909717   3.91450781    7.60949886  
F  -6.41800836   4.06464872   0.43848865    7.60949886  
F   2.45044286  -5.97647580   4.04206814    7.61979318  
F   2.45044286   6.05046431  -3.93045285    7.61979318  
F  -0.27556014  -1.22024423  -7.53403234    7.63718355  
F  -0.27556014  -6.46399012  -4.05801318    7.63718355  
F  -2.66955714  -5.97647580   4.04206814    7.69305617  
F  -2.66955714   6.05046431  -3.93045285    7.69305617  
F  -1.77227261   2.34381848  -7.11946124    7.70202335  
F  -1.77227261  -7.47016465  -0.61388412    7.70202335  
F   1.12457408   4.24376904   6.40193435    7.76266745  
F   0.39747201   1.81941634   7.54997738    7.77627277  
F   0.39747201   6.24533030   4.61608965    7.77627277  
F  -1.81638961   2.94357637   6.99987343    7.80782563  
F  -1.81638961   5.30085663   5.43725932    7.80782563  
F   5.39140655  -4.67628314   3.44412907    7.92445037  
F   5.39140655   4.99337671  -2.96577781    7.92445037  
F   1.63579819  -4.41214749   6.40193435    7.94529072  
F   1.63579819   7.61479262  -1.57058664    7.94529073  
F   6.02869612  -2.41058623   4.61608965    7.96645382  
F   6.02869612   5.19043992  -0.42254361    7.96645383  
F   2.32527917  -2.18527170   7.35863687    8.02071519  
F   2.32527917   7.62871143   0.85305975    8.02071520  
Nb   4.09189642   1.04418992   6.82447797    8.02542512  
Nb   4.09189642   5.87901984   3.61952453    8.02542512  
F   7.95650328  -1.02720510   0.85305975    8.06776336  
F   7.95650328   1.18575188  -0.61388412    8.06776336  
F   4.87302531  -0.55360960   6.52949469    8.16622068  
F   4.87302531   6.22958463   2.03299285    8.16622068  
F  -2.79472083  -2.18527170   7.35863687    8.16917459  
F  -2.79472083   7.62871143   0.85305975    8.16917460  
F   3.34772739   2.34381848  -7.11946124    8.20898850  
F   3.34772739  -7.47016465  -0.61388412    8.20898850  
F   3.30361039   2.94357637   6.99987343    8.28110569  
F   3.30361039   5.30085663   5.43725932    8.28110569  
F  -6.55123096  -0.18109953  -5.07849587    8.29111237  
F  -6.55123096  -4.60701349  -2.14460815    8.29111237  
F  -8.09297770  -1.04112391  -1.57058664    8.30945061  
Nb  -4.05520294   5.45855630  -4.82337520    8.33699322  
Nb  -4.05520294  -6.56838381   3.14914579    8.33699322  
F   5.10868927  -3.64657614  -5.50103948    8.34611640  
F  -5.13131073  -3.64657614  -5.50103948    8.35998222  
F  -7.06245507  -3.55212311   2.89402512    8.41850530  
F  -7.06245507   4.04890304  -2.14460815    8.41850530  
F   5.89547353   0.94469168  -5.93952814    8.42181957  
F   5.89547353  -5.83850255  -1.44302630    8.42181958  
F  -5.36697469  -0.55360960   6.52949469    8.47025394  
F  -5.36697469   6.22958463   2.03299285    8.47025395  
Nb  -2.09855601  -3.82023948   7.29485671    8.49782922  
Nb  -2.09855601   8.20670063  -0.67766428    8.49782922  
F  -3.48420181  -4.41214749   6.40193435    8.52006287  
F  -3.48420181   7.61479262  -1.57058664    8.52006287  
F   7.05921875   2.67944073   4.04206814    8.56447820  
F   1.93114434  -0.09445303  -8.39506460    8.61483311  
F   1.93114434  -7.69547918  -3.35643134    8.61483311  
F  -1.80923247   0.69362514   8.41100964    8.63131052  
F  -1.80923247   7.47681936   3.91450781    8.63131052  
F   0.27140655  -7.03356340   5.00674318    8.63783265  
F   0.27140655   7.35065697  -4.52839192    8.63783265  
F  -3.99542592   4.24376904   6.40193435    8.65781540  
F   0.51122411   3.37102358  -7.97252099    8.67100000  
F  -0.51122411  -3.37102358   7.97252099    8.67100000  
F   0.51122411  -8.65591653   0.00000000    8.67100000  
F  -0.51122411   8.65591653   0.00000000    8.67100000  
F  -7.27833303  -2.60545222  -3.93045285    8.67242599  
Nb   8.65266810  -0.44921590  -0.67766428    8.69078184  
F   4.59746516   5.00934039  -5.50103948    8.74594835  
F   4.59746516  -7.01759972   2.47148151    8.74594835  
Nb   3.02144399  -3.82023948   7.29485671    8.77144731  
Nb   3.02144399   8.20670063  -0.67766428    8.77144731  
Nb   6.69602117  -3.19736023  -4.82337520    8.85012770  
F   1.76096189   6.03654549  -6.35409923    8.93954391  
F   1.76096189  -8.20335160   3.08536562    8.93954391  
F  -3.18885566  -0.09445303  -8.39506460    8.98080350  
F  -3.18885566  -7.69547918  -3.35643134    8.98080350  
